SAMPLE DIVE TO 90 METERS OF SEAWATER GAUGE (MSWG) FOR 20 MINUTES
4
.13,.50,.37
.36,.00,.64
.50,.00,.50
.80,.00,.20
1
0,90,23,1
2
90,20,1
99
4
90,1,-10,3
33,2,-10,3
21,3,-10,3
9,4,-10,3
0